LAMMPS (3 Mar 2020)
# My test script

# INITIALISATION
units		lj
atom_style	sphere
dimension	2  #gives dimensionality of simulation

# SYSTEM DEFINITION
lattice		sq 0.01 #square unit cell with edge length = 0.01
Lattice spacing in x,y,z = 10 10 10
region		mybox block 0 30 0 30 -0.5 0.5 #changed ID from box to mybox to avoid confusion, gives xi min and max
create_box	1 mybox #changed ID from box to mybox, uses 1 atom types
Created orthogonal box = (0 0 -5) to (300 300 5)
create_atoms	1 box #atoms of type 1 created in region on lattice points
Created 900 atoms
#N.B 'box' is correct in the line above; it specifies placement on lattic points

# SIMULATION SETTINGS
set		type 1 mass 1
  900 settings made for mass

velocity	all create 1.44 87287 loop geom
#all particles are allocated random velocities for T = 1.44. geom is a type of looping

# multi neighbor and comm for efficiency

neighbor	1 multi #This sets parameters for building pairwise neighbor lists
neigh_modify	delay 0 #No delay on building new neighbour lists
comm_modify     mode multi #affects inter-processor communication of atom information

# pair-wise interaction potential
#pair_style	none
pair_style lj/cut 2.5 #cut-off at 2.5
pair_coeff * * 1 1 #energy, distance units

#fix		1 all npt temp 2.0 2.0 1.0 iso 0.0 1.0 10.0 drag 1.0 #	        mtk no pchain 0 tchain 1   #SHRINKING BOX
fix 2 all nvt temp 1.44 1.44 1 #CONSTANT SIZE BOX
#Constant n,P,T compression at T = 2, from P = 0 to 1, no mkt adjustment, original thermostat

dump		1 all atom 1000 dump.2Dsphere

dump		3 all movie 1000 2Dsphere.mpg type type #		zoom 1.5 center d 0.5 0.5 0.5
#dump_modify	3 pad 5 adiam 1 5.0

thermo_style	custom step temp epair etotal press vol
#output timestep, temperature, pairwise energy, total energy, pressure, volume
thermo		1000  #output thermodynamic variables every 1000 timesteps

timestep	0.005
#size of timestep in given time units

run		50000
  update every 1 steps, delay 0 steps, check yes
Step Temp E_pair TotEng Press Volume
0         1.44            0       1.4384     0.014384        90000
Averages over the last 26 of 51 rows, steps 25000 to 50000:
Temp E_pair TotEng Press Volume
1.43351 -0.0242206 1.40769 0.0143581 90000
Loop time of 2.09894 on 1 procs for 50000 steps with 900 atoms

#number of timesteps

shell copy log.lammps log.2Dsphere
shell py energy_plot.py

Please see the log.cite file for references relevant to this simulation
