LAMMPS (3 Mar 2020)
# VARIABLES
variable T         index  0.50 0.10 0.36 0.70  #Can loop over this variable
variable num       equal  1 #labelling results only
variable N         equal  1
variable box       equal  50 # cubic box of volume 10**3
variable t_step    equal  0.005
variable mix_steps equal  1000
variable mix_tau   equal  0.005*1000
variable run_steps equal  200 # steps to run simulation in order to reach steady state
variable run_tau   equal  0.005*200

# PARAMETERS
units lj
atom_style molecular
neighbor 0.4 bin
neigh_modify every 1 delay 1 check yes
comm_modify vel yes
comm_modify cutoff 1.9
#KG added to remove "Communication cutoff 1.52 is shorter than a bond length
#based estimate of 1.87. This may lead to errors" warning.

# READ
read_data input_data_nunchucks_1_50.file
  orthogonal box = (-25 -25 -25) to (25 25 25)
  reading atoms ...
  10 atoms
  scanning bonds ...
  scanning angles ...
  reading bonds ...
  9 bonds
  reading angles ...
  8 angles

#  BONDS
bond_style harmonic
special_bonds lj 0 1 1
bond_coeff * 500.0 0.98  # the wildcard (*) means to have the same for all bond types.

# ANGLES
angle_style harmonic
angle_coeff * 500.0  180

# PAIR lj/cut --with interactions, to steady state
pair_style lj/cut 1.0
pair_modify shift yes
pair_coeff * * 1  1.0  1.12

# THERMAL
timestep 0.005
thermo   100
thermo_style custom step time temp press pe ke etotal vol
thermo_modify norm no
reset_timestep 0

# DUMP OUTPUT
dump  1  all custom 1000 output.dump id mol type x y z vx vy vz
dump_modify 1 sort id

# FIX
fix 2 all nph iso 0.5 0.5 100
fix 3 all langevin 0.5 0.5 1 123456
run 1000
  update every 1 steps, delay 1 steps, check yes
Step Time Temp Press PotEng KinEng TotEng Volume
0            0            0 -1.4506788e-18 3.3306691e-13            0 3.3306691e-13       125000
Averages over the last 6 of 11 rows, steps 500 to 1000:
Temp Press PotEng KinEng TotEng Volume
0.654957 0.000423402 8.26126 8.84192 17.1032 17951.6
Loop time of 0.0897589 on 1 procs for 1000 steps with 10 atoms

unfix 2
unfix 3
fix 4 all nve
fix 5 all langevin 0.50 0.50 1 123456
fix recen1 all recenter INIT INIT INIT

# RUN
run 200
Step Time Temp Press PotEng KinEng TotEng Volume
1000            5   0.43850605 0.00017522111    9.4412322    5.9198317    15.361064     12100.94
Loop time of 0.00199509 on 1 procs for 200 steps with 10 atoms

# SHELL
shell copy output.dump        output_T_0.50_box_50_run_1.dump
shell echo> T_0.50.done
#shell commands modified for use in windows

#This section  of codes allows looping over the list of T values
clear
next T
jump in.run
# VARIABLES
variable T         index  0.50 0.10 0.36 0.70  #Can loop over this variable
variable num       equal  1 #labelling results only
variable N         equal  1
variable box       equal  50 # cubic box of volume 10**3
variable t_step    equal  0.005
variable mix_steps equal  1000
variable mix_tau   equal  0.005*1000
variable run_steps equal  200 # steps to run simulation in order to reach steady state
variable run_tau   equal  0.005*200

# PARAMETERS
units lj
atom_style molecular
neighbor 0.4 bin
neigh_modify every 1 delay 1 check yes
comm_modify vel yes
comm_modify cutoff 1.9
#KG added to remove "Communication cutoff 1.52 is shorter than a bond length
#based estimate of 1.87. This may lead to errors" warning.

# READ
read_data input_data_nunchucks_1_50.file
  orthogonal box = (-25 -25 -25) to (25 25 25)
  reading atoms ...
  10 atoms
  scanning bonds ...
  scanning angles ...
  reading bonds ...
  9 bonds
  reading angles ...
  8 angles

#  BONDS
bond_style harmonic
special_bonds lj 0 1 1
bond_coeff * 500.0 0.98  # the wildcard (*) means to have the same for all bond types.

# ANGLES
angle_style harmonic
angle_coeff * 500.0  180

# PAIR lj/cut --with interactions, to steady state
pair_style lj/cut 1.0
pair_modify shift yes
pair_coeff * * 1  1.0  1.12

# THERMAL
timestep 0.005
thermo   100
thermo_style custom step time temp press pe ke etotal vol
thermo_modify norm no
reset_timestep 0

# DUMP OUTPUT
dump  1  all custom 1000 output.dump id mol type x y z vx vy vz
dump_modify 1 sort id

# FIX
fix 2 all nph iso 0.5 0.5 100
fix 3 all langevin 0.5 0.5 1 123456
run 1000
  update every 1 steps, delay 1 steps, check yes
Step Time Temp Press PotEng KinEng TotEng Volume
0            0            0 -1.4506788e-18 3.3306691e-13            0 3.3306691e-13       125000
Averages over the last 6 of 11 rows, steps 500 to 1000:
Temp Press PotEng KinEng TotEng Volume
0.654957 0.000423402 8.26126 8.84192 17.1032 17951.6
Loop time of 0.0846231 on 1 procs for 1000 steps with 10 atoms

unfix 2
unfix 3
fix 4 all nve
fix 5 all langevin 0.10 0.10 1 123456
fix recen1 all recenter INIT INIT INIT

# RUN
run 200
Step Time Temp Press PotEng KinEng TotEng Volume
1000            5   0.43850605 0.00017522111    9.4412322    5.9198317    15.361064     12100.94
Loop time of 0.0156219 on 1 procs for 200 steps with 10 atoms

# SHELL
shell copy output.dump        output_T_0.10_box_50_run_1.dump
shell echo> T_0.10.done
#shell commands modified for use in windows

#This section  of codes allows looping over the list of T values
clear
next T
jump in.run
# VARIABLES
variable T         index  0.50 0.10 0.36 0.70  #Can loop over this variable
variable num       equal  1 #labelling results only
variable N         equal  1
variable box       equal  50 # cubic box of volume 10**3
variable t_step    equal  0.005
variable mix_steps equal  1000
variable mix_tau   equal  0.005*1000
variable run_steps equal  200 # steps to run simulation in order to reach steady state
variable run_tau   equal  0.005*200

# PARAMETERS
units lj
atom_style molecular
neighbor 0.4 bin
neigh_modify every 1 delay 1 check yes
comm_modify vel yes
comm_modify cutoff 1.9
#KG added to remove "Communication cutoff 1.52 is shorter than a bond length
#based estimate of 1.87. This may lead to errors" warning.

# READ
read_data input_data_nunchucks_1_50.file
  orthogonal box = (-25 -25 -25) to (25 25 25)
  reading atoms ...
  10 atoms
  scanning bonds ...
  scanning angles ...
  reading bonds ...
  9 bonds
  reading angles ...
  8 angles

#  BONDS
bond_style harmonic
special_bonds lj 0 1 1
bond_coeff * 500.0 0.98  # the wildcard (*) means to have the same for all bond types.

# ANGLES
angle_style harmonic
angle_coeff * 500.0  180

# PAIR lj/cut --with interactions, to steady state
pair_style lj/cut 1.0
pair_modify shift yes
pair_coeff * * 1  1.0  1.12

# THERMAL
timestep 0.005
thermo   100
thermo_style custom step time temp press pe ke etotal vol
thermo_modify norm no
reset_timestep 0

# DUMP OUTPUT
dump  1  all custom 1000 output.dump id mol type x y z vx vy vz
dump_modify 1 sort id

# FIX
fix 2 all nph iso 0.5 0.5 100
fix 3 all langevin 0.5 0.5 1 123456
run 1000
  update every 1 steps, delay 1 steps, check yes
Step Time Temp Press PotEng KinEng TotEng Volume
0            0            0 -1.4506788e-18 3.3306691e-13            0 3.3306691e-13       125000
Averages over the last 6 of 11 rows, steps 500 to 1000:
Temp Press PotEng KinEng TotEng Volume
0.654957 0.000423402 8.26126 8.84192 17.1032 17951.6
Loop time of 0.090966 on 1 procs for 1000 steps with 10 atoms

unfix 2
unfix 3
fix 4 all nve
fix 5 all langevin 0.36 0.36 1 123456
fix recen1 all recenter INIT INIT INIT

# RUN
run 200
Step Time Temp Press PotEng KinEng TotEng Volume
1000            5   0.43850605 0.00017522111    9.4412322    5.9198317    15.361064     12100.94
Loop time of 0.00804186 on 1 procs for 200 steps with 10 atoms

# SHELL
shell copy output.dump        output_T_0.36_box_50_run_1.dump
shell echo> T_0.36.done
#shell commands modified for use in windows

#This section  of codes allows looping over the list of T values
clear
next T
jump in.run
# VARIABLES
variable T         index  0.50 0.10 0.36 0.70  #Can loop over this variable
variable num       equal  1 #labelling results only
variable N         equal  1
variable box       equal  50 # cubic box of volume 10**3
variable t_step    equal  0.005
variable mix_steps equal  1000
variable mix_tau   equal  0.005*1000
variable run_steps equal  200 # steps to run simulation in order to reach steady state
variable run_tau   equal  0.005*200

# PARAMETERS
units lj
atom_style molecular
neighbor 0.4 bin
neigh_modify every 1 delay 1 check yes
comm_modify vel yes
comm_modify cutoff 1.9
#KG added to remove "Communication cutoff 1.52 is shorter than a bond length
#based estimate of 1.87. This may lead to errors" warning.

# READ
read_data input_data_nunchucks_1_50.file
  orthogonal box = (-25 -25 -25) to (25 25 25)
  reading atoms ...
  10 atoms
  scanning bonds ...
  scanning angles ...
  reading bonds ...
  9 bonds
  reading angles ...
  8 angles

#  BONDS
bond_style harmonic
special_bonds lj 0 1 1
bond_coeff * 500.0 0.98  # the wildcard (*) means to have the same for all bond types.

# ANGLES
angle_style harmonic
angle_coeff * 500.0  180

# PAIR lj/cut --with interactions, to steady state
pair_style lj/cut 1.0
pair_modify shift yes
pair_coeff * * 1  1.0  1.12

# THERMAL
timestep 0.005
thermo   100
thermo_style custom step time temp press pe ke etotal vol
thermo_modify norm no
reset_timestep 0

# DUMP OUTPUT
dump  1  all custom 1000 output.dump id mol type x y z vx vy vz
dump_modify 1 sort id

# FIX
fix 2 all nph iso 0.5 0.5 100
fix 3 all langevin 0.5 0.5 1 123456
run 1000
  update every 1 steps, delay 1 steps, check yes
Step Time Temp Press PotEng KinEng TotEng Volume
0            0            0 -1.4506788e-18 3.3306691e-13            0 3.3306691e-13       125000
Averages over the last 6 of 11 rows, steps 500 to 1000:
Temp Press PotEng KinEng TotEng Volume
0.654957 0.000423402 8.26126 8.84192 17.1032 17951.6
Loop time of 0.08919 on 1 procs for 1000 steps with 10 atoms

unfix 2
unfix 3
fix 4 all nve
fix 5 all langevin 0.70 0.70 1 123456
fix recen1 all recenter INIT INIT INIT

# RUN
run 200
Step Time Temp Press PotEng KinEng TotEng Volume
1000            5   0.43850605 0.00017522111    9.4412322    5.9198317    15.361064     12100.94
Loop time of 0.0122049 on 1 procs for 200 steps with 10 atoms

# SHELL
shell copy output.dump        output_T_0.70_box_50_run_1.dump
shell echo> T_0.70.done
#shell commands modified for use in windows

#This section  of codes allows looping over the list of T values
clear
next T
jump in.run
