LAMMPS (3 Mar 2020)
#
#
# VARIABLES
variable T         equal  0.50 #0.10 0.36 0.70
variable num       equal  1
variable N         equal  1000 #200 # 250 300 350
variable box       equal  100.0
variable t_step    equal  0.005
variable mix_steps equal  50000
variable mix_tau   equal  0.005*50000
variable run_steps equal  50000
variable run_tau   equal  0.005*50000

# PARAMETERS
units lj
atom_style molecular
neighbor 0.4 bin
neigh_modify every 1 delay 1 check yes
comm_modify vel yes
comm_modify cutoff 1.9
#KG added to remove "Communication cutoff 1.52 is shorter than a bond length
#based estimate of 1.87. This may lead to errors" warning.

# READ
read_data input_data_nunchucks_1000_100.file
  orthogonal box = (-50 -50 -50) to (50 50 50)
  reading atoms ...
  10000 atoms
  scanning bonds ...
  scanning angles ...
  reading bonds ...
  9000 bonds
  reading angles ...
  8000 angles

#  BONDS
bond_style harmonic
special_bonds lj 0 1 1
bond_coeff * 500.0 0.98  # the wildcard (*) means to have the same for all bond types.
bond_coeff 5 50.0 0.98

# ANGLES
angle_style harmonic
angle_coeff * 500.0  180
angle_coeff 4 0.1  180
angle_coeff 5 0.1  180

# PAIR lj/cut --with interactions, to steady state
pair_style lj/cut 1.0
pair_modify shift yes
pair_coeff * * 1  1.0  1.12

# THERMAL
timestep 0.005
thermo   100
thermo_style custom step time temp press pe ke etotal vol
thermo_modify norm no
reset_timestep 0

# FIX
fix 2 all nph iso 0.5 0.5 100
fix 3 all langevin 0.5 0.5 1 123456
#run 50000

#unfix 3
#fix 4 all nve
fix recen1 all recenter INIT INIT INIT

# DUMP OUTPUT
dump  1  all custom 1000 output.dump id mol type x y z vx vy vz

# FIX for RDF
#comm_modify cutoff 25.0
#compute   3 all rdf 500 5 6 cutoff 24.0

# RUN
run 50000
  update every 1 steps, delay 1 steps, check yes
Step Time Temp Press PotEng KinEng TotEng Volume
0            0            0 -2.5513151e-17 1.1602523e-10            0 1.1602523e-10 1000000
Averages over the last 251 of 501 rows, steps 25000 to 50000:
Temp Press PotEng KinEng TotEng Volume
0.500359 0.00252146 5732.5 7504.64 13237.1 268564
Loop time of 227.691 on 1 procs for 50000 steps with 10000 atoms

# SHELL
shell copy output.dump        output_T_0.5_N_1000_box_100_run_250_tau_num_1.dump
shell echo> T_0.5.done
#shell commands modified for use in windows

#clear
#next T
#jump in.run
