LAMMPS (3 Mar 2020)
# VARIABLES
variable T         equal  0.50 #0.10 0.36 0.70  #Can loop over this variable
variable box       equal  50 # cubic box of volume 10**3
variable t_step    equal  0.005
variable run_steps equal  20000 # steps to run simulation in order to reach steady state
variable run_tau   equal  0.005*20000
# N is read into nunchucks.py file in args.parser

# PARAMETERS
units lj
atom_style molecular
neighbor 0.4 bin
neigh_modify every 1 delay 1 check yes
comm_modify vel yes
comm_modify cutoff 1.9
#KG added to remove "Communication cutoff 1.52 is shorter than a bond length
#based estimate of 1.87. This may lead to errors" warning.

# READ
read_data rigid_rods.file
  orthogonal box = (-10 -10 -10) to (10 10 10)
  reading atoms ...
  10 atoms
  scanning bonds ...
  scanning angles ...
  reading bonds ...
  9 bonds
  reading angles ...
  8 angles

#  BONDS
bond_style harmonic
special_bonds lj 0 1 1
bond_coeff * 500.0 0.98  # the wildcard (*) means to have the same for all bond types.

# ANGLES
angle_style harmonic
angle_coeff * 500.0  180

# PAIR lj/cut --with interactions, to steady state
pair_style lj/cut 1.0
pair_modify shift yes
pair_coeff * * 1  1.0  1.12

# THERMAL
timestep 0.005
thermo   100
thermo_style custom step time temp press pe ke etotal vol
thermo_modify norm no
reset_timestep 0

# FIX
fix 2 all nve
fix 3 all langevin 0.5 0.5 1 123456
fix recen1 all recenter INIT INIT INIT

# DUMP OUTPUT
dump  1  all custom 1000 output.dump id mol type x y z vx vy vz

# RUN
run 20000
  update every 1 steps, delay 1 steps, check yes
Step Time Temp Press PotEng KinEng TotEng Volume
0            0            0 4.9867518e-17 1.2017803e-27            0 1.2017803e-27         8000
Averages over the last 101 of 201 rows, steps 10000 to 20000:
Temp Press PotEng KinEng TotEng Volume
0.538465 6.75862e-05 6.41441 7.26928 13.6837 8000
Loop time of 0.838388 on 1 procs for 20000 steps with 10 atoms

# SHELL
shell copy output.dump        output_T_0.5_box_50_run_100.dump
shell echo> T_0.5.done
#shell commands modified for use in windows

#This section  of codes allows looping over the list of T values
#clear
#next T
#jump in.run
