LAMMPS (3 Mar 2020)
#Here the looping is done manually instead

# VARIABLES
variable T         equal  0.5 # 0.1 0.36 0.70  #Can loop over this variable
variable num       equal  1 #labelling results only
variable N         equal  1000
variable box       equal  100 # cubic box of volume 'box'
variable t_step    equal  0.005 #originally 0.005
variable mix_steps equal  5000
variable mix_tau   equal  0.005*5000
variable run_steps equal  5000 # steps to run simulation in order to reach steady state
variable run_tau   equal  0.005*5000
#use index to loop over variable

# PARAMETERS
units lj
atom_style molecular
neighbor 0.4 bin
neigh_modify every 1 delay 1 check yes
comm_modify vel yes
comm_modify cutoff 1.9
#KG added to remove "Communication cutoff 1.52 is shorter than a bond length
#based estimate of 1.87. This may lead to errors" warning.

# READ
read_data input_data_nunchucks_1000_100.file
  orthogonal box = (-50 -50 -50) to (50 50 50)
  reading atoms ...
  10000 atoms
  scanning bonds ...
  scanning angles ...
  reading bonds ...
  9000 bonds
  reading angles ...
  8000 angles

#  BONDS
bond_style harmonic
special_bonds lj 0 1 1
bond_coeff * 500.0 0.98  # the wildcard (*) means to have the same for all bond types.
#0.98 is the distance between ball centres

# ANGLES
angle_style harmonic
angle_coeff * 500.0  180

# PAIR lj/cut --with interactions, to steady state
pair_style lj/cut 1.0
pair_modify shift yes
pair_coeff * * 1  1.0  1.12
#1.12 is cut-off for potential

# THERMAL
timestep 0.005
thermo   100
thermo_style custom step time temp press pe ke etotal vol
thermo_modify norm no
# reset_timestep 0

# DUMP OUTPUT
dump  1  all custom 1000 output.dump id mol type x y z vx vy vz
dump_modify 1 sort id

# FIX
fix 2 all nph iso 0.5 0.5 100
fix 3 all langevin 0.5 0.5 1 123456
run 5000
  update every 1 steps, delay 1 steps, check yes
Step Time Temp Press PotEng KinEng TotEng Volume
0            0            0 -1.5395349e-16 1.5065726e-10            0 1.5065726e-10 1000000
Averages over the last 26 of 51 rows, steps 2500 to 5000:
Temp Press PotEng KinEng TotEng Volume
0.498783 0.000890983 6429.8 7481 13910.8 795838
Loop time of 9.56019 on 1 procs for 5000 steps with 10000 atoms

unfix 2
unfix 3
fix 4 all nve
fix 5 all langevin 0.5 0.5 1 123456
fix recen1 all recenter INIT INIT INIT
#constrain centre of mass to initial values

# RUN
run 5000
Step Time Temp Press PotEng KinEng TotEng Volume
5000           25   0.49032287 0.00015928967    6526.7455    7354.1075    13880.853    746157.53
Averages over the last 26 of 51 rows, steps 7500 to 10000:
Temp Press PotEng KinEng TotEng Volume
0.499684 0.000555298 6470.85 7494.52 13965.4 746158
Loop time of 7.93127 on 1 procs for 5000 steps with 10000 atoms

# FIX
fix 2 all nph iso 0.5 0.5 100
fix 3 all langevin 0.5 0.5 1 123456
run 5000
Step Time Temp Press PotEng KinEng TotEng Volume
10000           50   0.49996992 -0.0014528666    6404.7967    7498.7988    13903.595    746157.53
ERROR on proc 0: Bond atoms 8815 8816 missing on proc 0 at step 10064 (../ntopo_bond_all.cpp:63)
